FoamFile
{
    version     2.0;
    format      ascii;
    class       dictionary;
    object      controlDict;
}
// * * * * * * * * * * * * * * * * * * * * * * * * * * * * * * * * * * * * * //

application     none;

startFrom       startTime;
startTime       0;
stopAt          endTime;
endTime         0;
deltaT          1;
writeControl    timeStep;
writeInterval   1;

// ************************************************************************* //
